/*--------------------------------*- C++ -*----------------------------------*\
| =========                 |                                                 |
| \\      /  F ield         | OpenFOAM: The Open Source CFD Toolbox           |
|  \\    /   O peration     | Version:  v2212                                 |
|   \\  /    A nd           | Website:  www.openfoam.com                      |
|    \\/     M anipulation  |                                                 |
\*---------------------------------------------------------------------------*/
FoamFile
{
    version     2.0;
    format      ascii;
    class       volScalarField;
    object      Fi;
}
// * * * * * * * * * * * * * * * * * * * * * * * * * * * * * * * * * * * * * //

dimensions      [1 2 -3 0 0 -1 0]; 

internalField   uniform 0; 

boundaryField
{
    inlet
    {
        type    fixedValue;
        value   uniform 0.018;
    }

    outlet
    {
        type     fixedValue;
        value    uniform 0; 
    }

    upperWall
    {
        type    zeroGradient;
    }

    lowerWall
    {
        type    zeroGradient;
    }

    frontAndBack
    {
        type    empty;
    }
}


// ************************************************************************* //