/*--------------------------------*- C++ -*----------------------------------*\
| =========                 |                                                 |
| \\      /  F ield         | OpenFOAM: The Open Source CFD Toolbox           |
|  \\    /   O peration     | Version:  v2212                                 |
|   \\  /    A nd           | Website:  www.openfoam.com                      |
|    \\/     M anipulation  |                                                 |
\*---------------------------------------------------------------------------*/
FoamFile
{
    version     2.0;
    format      ascii;
    class       dictionary;
    object      properties;
}
// * * * * * * * * * * * * * * * * * * * * * * * * * * * * * * * * * * * * * //

F                96485;

R                8.31446;

T                833;

DC1              8.01e-09;

DC2              7.45e-09;

DC3              6.35e-09;

mu1              1.16e-12;

mu2              1.08e-12;

mu3              9.17e-13;

z1               1;

z2               2;

z3               -1;

// ************************************************************************* //
