/*--------------------------------*- C++ -*----------------------------------*\
| =========                 |                                                 |
| \\      /  F ield         | OpenFOAM: The Open Source CFD Toolbox           |
|  \\    /   O peration     | Version:  v2212                                 |
|   \\  /    A nd           | Website:  www.openfoam.com                      |
|    \\/     M anipulation  |                                                 |
\*---------------------------------------------------------------------------*/
FoamFile
{
    version     2.0;
    format      ascii;
    class       dictionary;
    object      properties;
}
// * * * * * * * * * * * * * * * * * * * * * * * * * * * * * * * * * * * * * //

DC1              1.5e-09;

DC2              0;

z1               -1;

z2               1;

F                96485;

R                8.31446;

T                295;

mu1              6.12e-13;

mu2              0; 

kap              2.91e-2; 

Gamma            0.2777777778;

p                0.4;

// ************************************************************************* //
